@<TRIPOS>MOLECULE
****
47 50 1 0 0
SMALL
USER_CHARGES


@<TRIPOS>ATOM
      1 C          -4.4851   -0.7253   -0.1555 C.2       1     ****    0.0000
      2 C          -4.8412    0.5623   -0.4321 C.2       1     ****    0.0000
      3 C          -5.4045   -1.7179   -0.2908 C.ar      1     ****    0.0000
      4 C          -3.2057   -1.0694    0.1507 C.ar      1     ****    0.0000
      5 C          -3.8076    1.4966   -1.0727 C.3       1     ****    0.0000
      6 C          -6.0982    1.0447   -0.2256 C.ar      1     ****    0.0000
      7 C          -6.4346   -1.6562   -1.1615 C.ar      1     ****    0.0000
      8 N          -7.3247   -2.5405   -1.3281 N.ar      1     ****    0.0000
      9 C          -7.2960   -3.5979   -0.6319 C.ar      1     ****    0.0000
     10 C          -6.3213   -3.7857    0.2705 C.ar      1     ****    0.0000
     11 C          -5.3744   -2.8517    0.4387 C.ar      1     ****    0.0000
     12 C          -2.6708   -2.2563   -0.2092 C.ar      1     ****    0.0000
     13 C          -1.4100   -2.6031    0.0916 C.ar      1     ****    0.0000
     14 C          -0.6023   -1.7797    0.7761 C.ar      1     ****    0.0000
     15 C          -1.1150   -0.5944    1.1390 C.ar      1     ****    0.0000
     16 C          -2.3761   -0.2531    0.8318 C.ar      1     ****    0.0000
     17 C          -6.5519    2.1660   -0.8273 C.ar      1     ****    0.0000
     18 C          -7.7846    2.6555   -0.6194 C.ar      1     ****    0.0000
     19 C          -8.6200    2.0422    0.2284 C.ar      1     ****    0.0000
     20 C          -8.1941    0.9459    0.8682 C.ar      1     ****    0.0000
     21 C          -6.9582    0.4716    0.6457 C.ar      1     ****    0.0000
     22 N          -3.6927    2.8043   -0.3985 N.ar      1     ****    0.0000
     23 C          -3.9554    3.0481    0.8163 C.ar      1     ****    0.0000
     24 N          -3.7658    4.2748    1.0665 N.ar      1     ****    0.0000
     25 C          -3.3802    4.7834   -0.0293 C.ar      1     ****    0.0000
     26 C          -3.3219    3.8563   -0.9973 C.ar      1     ****    0.0000
     27 O          -8.2820   -4.5182   -0.8241 O.3       1     ****    0.0000
     28 O           0.6759   -2.1237    1.0877 O.3       1     ****    0.0000
     29 H          -2.7926    1.0587   -1.1799 H         1     ****    0.0000
     30 H          -4.1126    1.6320   -2.1375 H         1     ****    0.0000
     31 H          -6.5524   -0.8038   -1.8528 H         1     ****    0.0000
     32 H          -6.3105   -4.7032    0.8818 H         1     ****    0.0000
     33 H          -4.6198   -3.0269    1.2234 H         1     ****    0.0000
     34 H          -3.2352   -2.9836   -0.8171 H         1     ****    0.0000
     35 H          -1.0189   -3.5803   -0.2396 H         1     ****    0.0000
     36 H          -0.4859    0.1068    1.7129 H         1     ****    0.0000
     37 H          -2.7222    0.7205    1.2083 H         1     ****    0.0000
     38 H          -5.9453    2.7282   -1.5539 H         1     ****    0.0000
     39 H          -8.1165    3.5653   -1.1483 H         1     ****    0.0000
     40 H          -9.6313    2.4421    0.4089 H         1     ****    0.0000
     41 H          -8.8571    0.4471    1.5955 H         1     ****    0.0000
     42 H          -6.6706   -0.3955    1.2622 H         1     ****    0.0000
     43 H          -4.3024    2.3060    1.5427 H         1     ****    0.0000
     44 H          -3.1375    5.8485   -0.1377 H         1     ****    0.0000
     45 H          -3.0414    3.9232   -2.0522 H         1     ****    0.0000
     46 H          -8.1397   -5.2659   -0.2206 H         1     ****    0.0000
     47 H           1.0894   -1.3968    1.5804 H         1     ****    0.0000
@<TRIPOS>BOND
     1     1     2     2
     2     1     3     1
     3     1     4     1
     4     2     5     1
     5     2     6     1
     6     3     7     1
     7     3    11     2
     8     4    12     1
     9     4    16     2
    10     5    22     1
    11     5    29     1
    12     5    30     1
    13     6    17     1
    14     6    21     2
    15     7     8     2
    16     7    31     1
    17     8     9     1
    18     9    10     2
    19     9    27     1
    20    10    11     1
    21    10    32     1
    22    11    33     1
    23    12    13     2
    24    12    34     1
    25    13    14     1
    26    13    35     1
    27    14    15     2
    28    14    28     1
    29    15    16     1
    30    15    36     1
    31    16    37     1
    32    17    18     2
    33    17    38     1
    34    18    19     1
    35    18    39     1
    36    19    20     2
    37    19    40     1
    38    20    21     1
    39    20    41     1
    40    21    42     1
    41    22    23     1
    42    22    26     1
    43    23    24     2
    44    23    43     1
    45    24    25     1
    46    25    26     2
    47    25    44     1
    48    26    45     1
    49    27    46     1
    50    28    47     1
