REMARK  7 active torsions:
REMARK  status: ('A' for Active; 'I' for Inactive)
REMARK    1  A    between atoms: C_1  and  C_3 
REMARK    2  A    between atoms: C_1  and  C_4 
REMARK    3  A    between atoms: C_2  and  C_6 
REMARK    4  A    between atoms: C_2  and  C_5 
REMARK    5  A    between atoms: C_5  and  N_22 
REMARK    6  A    between atoms: C_9  and  O_27 
REMARK    7  A    between atoms: C_14  and  O_28 
ROOT
HETATM    1  C   ***     1     -10.288  48.514 332.624  1.00  0.00    -0.005 C 
HETATM    2  C   ***     1     -11.286  48.025 331.833  1.00  0.00    -0.018 C 
ENDROOT
BRANCH   1   3
HETATM    3  C   ***     1      -8.993  48.242 332.313  1.00  0.00    -0.007 A 
HETATM    4  C   ***     1      -8.014  48.168 333.238  1.00  0.00     0.018 A 
HETATM    5  C   ***     1      -6.759  47.877 332.869  1.00  0.00     0.059 A 
HETATM    6  C   ***     1      -6.471  47.669 331.575  1.00  0.00     0.161 A 
HETATM    7  N   ***     1      -7.383  47.748 330.699  1.00  0.00    -0.236 NA
HETATM    8  C   ***     1      -8.569  48.013 331.051  1.00  0.00     0.131 A 
BRANCH   6   9
HETATM    9  O   ***     1      -5.210  47.361 331.161  1.00  0.00    -0.345 OA
HETATM   10  H   ***     1      -4.623  47.326 331.934  1.00  0.00     0.219 HD
ENDBRANCH   6   9
ENDBRANCH   1   3
BRANCH   1  11
HETATM   11  C   ***     1     -10.538  49.358 333.661  1.00  0.00    -0.024 A 
HETATM   12  C   ***     1     -11.660  49.285 334.405  1.00  0.00     0.015 A 
HETATM   13  C   ***     1     -11.904  50.114 335.431  1.00  0.00     0.037 A 
HETATM   14  C   ***     1     -11.037  51.078 335.774  1.00  0.00     0.065 A 
HETATM   15  C   ***     1      -9.917  51.172 335.041  1.00  0.00     0.037 A 
HETATM   16  C   ***     1      -9.678  50.337 334.019  1.00  0.00     0.015 A 
BRANCH  14  17
HETATM   17  O   ***     1     -11.286  51.918 336.814  1.00  0.00    -0.361 OA
HETATM   18  H   ***     1     -12.141  51.687 337.211  1.00  0.00     0.217 HD
ENDBRANCH  14  17
ENDBRANCH   1  11
BRANCH   2  19
HETATM   19  C   ***     1     -11.194  46.838 331.171  1.00  0.00    -0.027 A 
HETATM   20  C   ***     1     -10.348  45.858 331.560  1.00  0.00     0.012 A 
HETATM   21  C   ***     1     -10.258  44.679 330.924  1.00  0.00     0.001 A 
HETATM   22  C   ***     1     -11.037  44.423 329.866  1.00  0.00     0.000 A 
HETATM   23  C   ***     1     -11.910  45.359 329.471  1.00  0.00     0.001 A 
HETATM   24  C   ***     1     -11.985  46.531 330.120  1.00  0.00     0.012 A 
ENDBRANCH   2  19
BRANCH   2  25
HETATM   25  C   ***     1     -12.542  48.877 331.613  1.00  0.00     0.169 C 
BRANCH  25  26
HETATM   26  N   ***     1     -13.803  48.137 331.819  1.00  0.00    -0.346 N 
HETATM   27  C   ***     1     -13.965  47.123 332.560  1.00  0.00     0.209 A 
HETATM   28  N   ***     1     -15.165  46.723 332.497  1.00  0.00    -0.255 NA
HETATM   29  C   ***     1     -15.740  47.519 331.694  1.00  0.00     0.135 A 
HETATM   30  C   ***     1     -14.884  48.446 331.238  1.00  0.00     0.111 A 
ENDBRANCH  25  26
ENDBRANCH   2  25
TORSDOF 7
